C1P
  CCTOOLS-1004241120

 76 78  0  0  1  0  0  0  0  0999 V2000
   -2.5340   -1.8720   -0.3380 N   0  0  0  0  0
   -3.5230   -2.4730    0.3530 C   0  0  0  0  0
   -3.3340   -2.8260    1.5010 O   0  0  0  0  0
   -4.7200   -2.6830   -0.2280 N   0  0  0  0  0
   -5.8470   -3.2370    0.5380 C   0  0  0  0  0
   -7.0700   -2.3390    0.3190 C   0  0  0  0  0
   -7.2810   -2.1650   -1.0840 O   0  0  0  0  0
   -6.2070   -1.5070   -1.7600 C   0  0  0  0  0
   -4.9420   -2.3580   -1.6460 C   0  0  0  0  0
   -1.2700   -1.5440    0.3260 C   0  0  0  0  0
   -0.6600   -0.3300   -0.3270 C   0  0  0  0  0
   -1.0290    0.0150   -1.4290 O   0  0  0  0  0
    0.2960    0.3710    0.3140 N   0  0  0  0  0
    0.8140    1.6090   -0.2720 C   0  0  0  0  0
    2.2270    1.8690    0.2510 C   0  0  0  0  0
    3.1650    0.7650   -0.2420 C   0  0  0  0  0
    4.8410    1.0740    0.3790 S   0  0  0  0  0
    5.3960    2.2290   -0.2350 O   0  0  0  0  0
    4.8920    0.8970    1.7880 O   0  0  0  0  0
    5.7990   -0.2600   -0.2610 C   0  0  0  0  0
    6.4190   -0.1390   -1.4900 C   0  0  0  0  0
    7.1700   -1.1850   -1.9920 C   0  0  0  0  0
    7.3020   -2.3520   -1.2630 C   0  0  0  0  0
    6.6830   -2.4730   -0.0330 C   0  0  0  0  0
    5.9360   -1.4250    0.4700 C   0  0  0  0  0
   -0.0970    2.7760    0.1160 C   0  0  0  0  0
   -1.4770    2.5770   -0.5130 C   0  0  0  0  0
   -2.3740    3.7270   -0.1310 C   0  0  0  0  0
   -2.4290    4.8550   -0.9280 C   0  0  0  0  0
   -3.2510    5.9090   -0.5780 C   0  0  0  0  0
   -4.0180    5.8360    0.5700 C   0  0  0  0  0
   -3.9640    4.7070    1.3660 C   0  0  0  0  0
   -3.1450    3.6510    1.0140 C   0  0  0  0  0
   -0.3080   -2.7270    0.2030 C   0  0  0  0  0
    0.9620   -2.4370    1.0060 C   0  0  0  0  0
    0.6160   -2.3500    2.4940 C   0  0  0  0  0
    1.9750   -3.5610    0.7830 C   0  0  0  0  0
   -2.6580   -1.6600   -1.2770 H   0  0  0  0  0
   -6.0670   -4.2470    0.1900 H   0  0  0  0  0
   -5.5940   -3.2610    1.5980 H   0  0  0  0  0
   -7.9490   -2.8050    0.7650 H   0  0  0  0  0
   -6.8970   -1.3680    0.7850 H   0  0  0  0  0
   -6.4650   -1.3750   -2.8110 H   0  0  0  0  0
   -6.0300   -0.5340   -1.3020 H   0  0  0  0  0
   -4.0890   -1.7990   -2.0320 H   0  0  0  0  0
   -5.0680   -3.2770   -2.2180 H   0  0  0  0  0
   -1.4570   -1.3350    1.3790 H   0  0  0  0  0
    0.6410    0.0550    1.1640 H   0  0  0  0  0
    0.8400    1.5140   -1.3580 H   0  0  0  0  0
    2.5790    2.8340   -0.1140 H   0  0  0  0  0
    2.8140   -0.2000    0.1240 H   0  0  0  0  0
    6.3160    0.7730   -2.0590 H   0  0  0  0  0
    7.6540   -1.0900   -2.9530 H   0  0  0  0  0
    7.8890   -3.1700   -1.6560 H   0  0  0  0  0
    6.7860   -3.3860    0.5360 H   0  0  0  0  0
    5.4550   -1.5180    1.4330 H   0  0  0  0  0
   -0.1930    2.8170    1.2010 H   0  0  0  0  0
    0.3360    3.7100   -0.2450 H   0  0  0  0  0
   -1.3800    2.5370   -1.5980 H   0  0  0  0  0
   -1.9090    1.6440   -0.1520 H   0  0  0  0  0
   -1.8290    4.9120   -1.8250 H   0  0  0  0  0
   -3.2930    6.7910   -1.2000 H   0  0  0  0  0
   -4.6600    6.6600    0.8440 H   0  0  0  0  0
   -4.5630    4.6500    2.2630 H   0  0  0  0  0
   -3.1050    2.7680    1.6340 H   0  0  0  0  0
   -0.7860   -3.6260    0.5920 H   0  0  0  0  0
   -0.0490   -2.8780   -0.8450 H   0  0  0  0  0
    1.3910   -1.4900    0.6770 H   0  0  0  0  0
    1.5040   -2.0630    3.0570 H   0  0  0  0  0
   -0.1650   -1.6040    2.6430 H   0  0  0  0  0
    0.2630   -3.3200    2.8420 H   0  0  0  0  0
    2.2210   -3.6230   -0.2770 H   0  0  0  0  0
    2.8790   -3.3540    1.3550 H   0  0  0  0  0
    1.5460   -4.5080    1.1120 H   0  0  0  0  0
    2.2160    1.8760    1.3410 H   0  0  0  0  0
    3.1770    0.7590   -1.3320 H   0  0  0  0  0
  1  2  1  0  0  0
  1 10  1  0  0  0
  1 38  1  0  0  0
  2  3  2  0  0  0
  2  4  1  0  0  0
  4  5  1  0  0  0
  4  9  1  0  0  0
  5  6  1  0  0  0
  5 39  1  0  0  0
  5 40  1  0  0  0
  6  7  1  0  0  0
  6 41  1  0  0  0
  6 42  1  0  0  0
  7  8  1  0  0  0
  8  9  1  0  0  0
  8 43  1  0  0  0
  8 44  1  0  0  0
  9 45  1  0  0  0
  9 46  1  0  0  0
 10 11  1  0  0  0
 10 34  1  0  0  0
 10 47  1  0  0  0
 11 12  2  0  0  0
 11 13  1  0  0  0
 13 14  1  0  0  0
 13 48  1  0  0  0
 14 15  1  0  0  0
 14 26  1  0  0  0
 14 49  1  0  0  0
 15 16  1  0  0  0
 15 50  1  0  0  0
 15 75  1  0  0  0
 16 17  1  0  0  0
 16 51  1  0  0  0
 16 76  1  0  0  0
 17 18  2  0  0  0
 17 19  2  0  0  0
 17 20  1  0  0  0
 20 21  2  0  0  0
 20 25  1  0  0  0
 21 22  1  0  0  0
 21 52  1  0  0  0
 22 23  2  0  0  0
 22 53  1  0  0  0
 23 24  1  0  0  0
 23 54  1  0  0  0
 24 25  2  0  0  0
 24 55  1  0  0  0
 25 56  1  0  0  0
 26 27  1  0  0  0
 26 57  1  0  0  0
 26 58  1  0  0  0
 27 28  1  0  0  0
 27 59  1  0  0  0
 27 60  1  0  0  0
 28 29  2  0  0  0
 28 33  1  0  0  0
 29 30  1  0  0  0
 29 61  1  0  0  0
 30 31  2  0  0  0
 30 62  1  0  0  0
 31 32  1  0  0  0
 31 63  1  0  0  0
 32 33  2  0  0  0
 32 64  1  0  0  0
 33 65  1  0  0  0
 34 35  1  0  0  0
 34 66  1  0  0  0
 34 67  1  0  0  0
 35 36  1  0  0  0
 35 37  1  0  0  0
 35 68  1  0  0  0
 36 69  1  0  0  0
 36 70  1  0  0  0
 36 71  1  0  0  0
 37 72  1  0  0  0
 37 73  1  0  0  0
 37 74  1  0  0  0
M  END
$$$$
