NAG
  CCTOOLS-1004241123

 30 30  0  0  1  0  0  0  0  0999 V2000
    0.1850    1.0820   -0.4210 C   0  0  0  0  0
    0.7900   -0.2200    0.1120 C   0  0  0  0  0
   -0.1240   -1.3900   -0.2650 C   0  0  0  0  0
   -1.5260   -1.1290    0.2940 C   0  0  0  0  0
   -2.0420    0.2070   -0.2460 C   0  0  0  0  0
   -3.4170    0.5040    0.3550 C   0  0  0  0  0
    3.1970    0.1570    0.0760 C   0  0  0  0  0
    4.5590   -0.0520   -0.5330 C   0  0  0  0  0
    2.1140   -0.4220   -0.4800 N   0  0  0  0  0
    1.0030    2.1850   -0.0240 O   0  0  0  0  0
    0.3950   -2.6000    0.2910 O   0  0  0  0  0
   -2.4050   -2.1800   -0.1140 O   0  0  0  0  0
   -1.1300    1.2480    0.1130 O   0  0  0  0  0
   -3.9490    1.6910   -0.2360 O   0  0  0  0  0
    3.0740    0.8450    1.0670 O   0  0  0  0  0
    0.1330    1.0400   -1.5090 H   0  0  0  0  0
    0.8790   -0.1630    1.1970 H   0  0  0  0  0
   -0.1740   -1.4780   -1.3500 H   0  0  0  0  0
   -1.4830   -1.0910    1.3820 H   0  0  0  0  0
   -2.1230    0.1540   -1.3320 H   0  0  0  0  0
   -4.0880   -0.3330    0.1570 H   0  0  0  0  0
   -3.3200    0.6450    1.4310 H   0  0  0  0  0
    4.5600    0.3200   -1.5580 H   0  0  0  0  0
    5.3050    0.4900    0.0500 H   0  0  0  0  0
    4.7990   -1.1150   -0.5320 H   0  0  0  0  0
    2.2120   -0.9730   -1.2730 H   0  0  0  0  0
    0.6790    3.0440   -0.3280 H   0  0  0  0  0
   -0.1350   -3.3840    0.0910 H   0  0  0  0  0
   -3.3120   -2.0790    0.2060 H   0  0  0  0  0
   -4.8220    1.9400    0.0990 H   0  0  0  0  0
  1  2  1  0  0  0
  1 10  1  0  0  0
  1 13  1  0  0  0
  1 16  1  0  0  0
  2  3  1  0  0  0
  2  9  1  0  0  0
  2 17  1  0  0  0
  3  4  1  0  0  0
  3 11  1  0  0  0
  3 18  1  0  0  0
  4  5  1  0  0  0
  4 12  1  0  0  0
  4 19  1  0  0  0
  5  6  1  0  0  0
  5 13  1  0  0  0
  5 20  1  0  0  0
  6 14  1  0  0  0
  6 21  1  0  0  0
  6 22  1  0  0  0
  7  8  1  0  0  0
  7  9  1  0  0  0
  7 15  2  0  0  0
  8 23  1  0  0  0
  8 24  1  0  0  0
  8 25  1  0  0  0
  9 26  1  0  0  0
 10 27  1  0  0  0
 11 28  1  0  0  0
 12 29  1  0  0  0
 14 30  1  0  0  0
M  END
$$$$
