ligand_1
  PyMOL2.5          3D                             0

 17 18  0  0  0  0  0  0  0  0999 V2000
    4.6809    9.3408    2.6108 H   0  0  0  0  0  0  0  0  0  0  0  0
    9.0600    8.2460    4.8940 C   0  0  0  0  0  0  0  0  0  0  0  0
    3.6880   12.5790    3.5530 O   0  0  0  0  0  0  0  0  0  0  0  0
    7.2160   11.7060    4.0430 S   0  0  0  0  0  0  0  0  0  0  0  0
    8.1260    7.3410    4.4090 C   0  0  0  0  0  0  0  0  0  0  0  0
    4.6760   12.4490    1.6410 O   0  5  0  0  0  0  0  0  0  0  0  0
    8.8210    9.5760    4.7570 C   0  0  0  0  0  0  0  0  0  0  0  0
    6.9420    7.8020    3.7580 C   0  0  0  0  0  0  0  0  0  0  0  0
    4.6240   12.1020    2.8350 C   0  0  0  0  0  0  0  0  0  0  0  0
    5.5220    9.8290    3.1030 C   0  0  0  0  0  0  0  0  0  0  0  0
    5.6260   11.1390    3.3520 C   0  0  0  0  0  0  0  0  0  0  0  0
    7.6510    9.9970    4.0730 C   0  0  0  0  0  0  0  0  0  0  0  0
    6.7200    9.1620    3.5990 C   0  0  0  0  0  0  0  0  0  0  0  0
    9.5169   10.3085    5.1660 H   0  0  0  0  0  0  0  0  0  0  0  0
    9.9715    7.8946    5.3775 H   0  0  0  0  0  0  0  0  0  0  0  0
    8.2977    6.2710    4.5260 H   0  0  0  0  0  0  0  0  0  0  0  0
    6.2179    7.0336    3.4871 H   0  0  0  0  0  0  0  0  0  0  0  0
  2  5  4  0  0  0  0
  2  7  4  0  0  0  0
  2 15  1  0  0  0  0
  3  9  2  0  0  0  0
  4 11  1  0  0  0  0
  4 12  1  0  0  0  0
  5  8  4  0  0  0  0
  5 16  1  0  0  0  0
  6  9  1  0  0  0  0
  7 12  4  0  0  0  0
  7 14  1  0  0  0  0
  8 13  4  0  0  0  0
  8 17  1  0  0  0  0
  9 11  1  0  0  0  0
  1 10  1  0  0  0  0
 10 11  4  0  0  0  0
 10 13  1  0  0  0  0
 12 13  4  0  0  0  0
M  END
$$$$
ligand_2
  PyMOL2.5          3D                             0

 17 18  0  0  0  0  0  0  0  0999 V2000
    9.0600    8.2460    4.8940 C   0  0  0  0  0  0  0  0  0  0  0  0
    3.6880   12.5790    3.5530 O   0  0  0  0  0  0  0  0  0  0  0  0
    7.2160   11.7060    4.0430 S   0  0  0  0  0  0  0  0  0  0  0  0
    8.1260    7.3410    4.4090 C   0  0  0  0  0  0  0  0  0  0  0  0
    4.6760   12.4490    1.6410 O   0  5  0  0  0  0  0  0  0  0  0  0
    8.8210    9.5760    4.7570 C   0  0  0  0  0  0  0  0  0  0  0  0
    6.9420    7.8020    3.7580 C   0  0  0  0  0  0  0  0  0  0  0  0
    4.6240   12.1020    2.8350 C   0  0  0  0  0  0  0  0  0  0  0  0
    5.5220    9.8290    3.1030 C   0  0  0  0  0  0  0  0  0  0  0  0
    5.6260   11.1390    3.3520 C   0  0  0  0  0  0  0  0  0  0  0  0
    7.6510    9.9970    4.0730 C   0  0  0  0  0  0  0  0  0  0  0  0
    6.7200    9.1620    3.5990 C   0  0  0  0  0  0  0  0  0  0  0  0
    4.0969    9.0965    2.3511 Cl  0  0  0  0  0  0  0  0  0  0  0  0
    9.5169   10.3085    5.1660 H   0  0  0  0  0  0  0  0  0  0  0  0
    9.9715    7.8946    5.3775 H   0  0  0  0  0  0  0  0  0  0  0  0
    8.2977    6.2710    4.5260 H   0  0  0  0  0  0  0  0  0  0  0  0
    6.2179    7.0336    3.4871 H   0  0  0  0  0  0  0  0  0  0  0  0
  1  4  4  0  0  0  0
  1  6  4  0  0  0  0
  1 15  1  0  0  0  0
  2  8  2  0  0  0  0
  3 10  1  0  0  0  0
  3 11  1  0  0  0  0
  4  7  4  0  0  0  0
  4 16  1  0  0  0  0
  5  8  1  0  0  0  0
  6 11  4  0  0  0  0
  6 14  1  0  0  0  0
  7 12  4  0  0  0  0
  7 17  1  0  0  0  0
  8 10  1  0  0  0  0
  9 10  4  0  0  0  0
  9 12  1  0  0  0  0
  9 13  1  0  0  0  0
 11 12  4  0  0  0  0
M  END
$$$$
ligand_3
  PyMOL2.5          3D                             0

 17 18  0  0  0  0  0  0  0  0999 V2000
    9.0600    8.2460    4.8940 C   0  0  0  0  0  0  0  0  0  0  0  0
    3.6880   12.5790    3.5530 O   0  0  0  0  0  0  0  0  0  0  0  0
    7.2160   11.7060    4.0430 S   0  0  0  0  0  0  0  0  0  0  0  0
    8.1260    7.3410    4.4090 C   0  0  0  0  0  0  0  0  0  0  0  0
    4.6760   12.4490    1.6410 O   0  5  0  0  0  0  0  0  0  0  0  0
    8.8210    9.5760    4.7570 C   0  0  0  0  0  0  0  0  0  0  0  0
    6.9420    7.8020    3.7580 C   0  0  0  0  0  0  0  0  0  0  0  0
    4.6240   12.1020    2.8350 C   0  0  0  0  0  0  0  0  0  0  0  0
    5.5220    9.8290    3.1030 C   0  0  0  0  0  0  0  0  0  0  0  0
    5.6260   11.1390    3.3520 C   0  0  0  0  0  0  0  0  0  0  0  0
    7.6510    9.9970    4.0730 C   0  0  0  0  0  0  0  0  0  0  0  0
    6.7200    9.1620    3.5990 C   0  0  0  0  0  0  0  0  0  0  0  0
    5.7820    6.5710    3.3240 Cl  0  0  0  0  0  0  0  0  0  0  0  0
    4.1290    9.1130    2.3680 Cl  0  0  0  0  0  0  0  0  0  0  0  0
    9.5169   10.3085    5.1660 H   0  0  0  0  0  0  0  0  0  0  0  0
    9.9715    7.8946    5.3775 H   0  0  0  0  0  0  0  0  0  0  0  0
    8.2977    6.2710    4.5260 H   0  0  0  0  0  0  0  0  0  0  0  0
  1  4  4  0  0  0  0
  1  6  4  0  0  0  0
  1 16  1  0  0  0  0
  2  8  2  0  0  0  0
  3 10  1  0  0  0  0
  3 11  1  0  0  0  0
  4  7  4  0  0  0  0
  4 17  1  0  0  0  0
  5  8  1  0  0  0  0
  6 11  4  0  0  0  0
  6 15  1  0  0  0  0
  7 12  4  0  0  0  0
  7 13  1  0  0  0  0
  8 10  1  0  0  0  0
  9 10  4  0  0  0  0
  9 12  1  0  0  0  0
  9 14  1  0  0  0  0
 11 12  4  0  0  0  0
M  END
$$$$
ligand_4
  PyMOL2.5          3D                             0

 17 18  0  0  0  0  0  0  0  0999 V2000
    9.0600    8.2460    4.8940 C   0  0  0  0  0  0  0  0  0  0  0  0
    3.6880   12.5790    3.5530 O   0  0  0  0  0  0  0  0  0  0  0  0
    7.2160   11.7060    4.0430 S   0  0  0  0  0  0  0  0  0  0  0  0
    8.1260    7.3410    4.4090 C   0  0  0  0  0  0  0  0  0  0  0  0
    4.6760   12.4490    1.6410 O   0  5  0  0  0  0  0  0  0  0  0  0
    8.8210    9.5760    4.7570 C   0  0  0  0  0  0  0  0  0  0  0  0
    6.9420    7.8020    3.7580 C   0  0  0  0  0  0  0  0  0  0  0  0
    4.6240   12.1020    2.8350 C   0  0  0  0  0  0  0  0  0  0  0  0
    5.5220    9.8290    3.1030 C   0  0  0  0  0  0  0  0  0  0  0  0
    5.6260   11.1390    3.3520 C   0  0  0  0  0  0  0  0  0  0  0  0
    7.6510    9.9970    4.0730 C   0  0  0  0  0  0  0  0  0  0  0  0
    6.7200    9.1620    3.5990 C   0  0  0  0  0  0  0  0  0  0  0  0
    4.0969    9.0965    2.3511 Cl  0  0  0  0  0  0  0  0  0  0  0  0
   10.5402    7.6754    5.6792 Cl  0  0  0  0  0  0  0  0  0  0  0  0
    9.5169   10.3085    5.1660 H   0  0  0  0  0  0  0  0  0  0  0  0
    8.2977    6.2710    4.5260 H   0  0  0  0  0  0  0  0  0  0  0  0
    6.2179    7.0336    3.4871 H   0  0  0  0  0  0  0  0  0  0  0  0
  1  4  4  0  0  0  0
  1  6  4  0  0  0  0
  1 14  1  0  0  0  0
  2  8  2  0  0  0  0
  3 10  1  0  0  0  0
  3 11  1  0  0  0  0
  4  7  4  0  0  0  0
  4 16  1  0  0  0  0
  5  8  1  0  0  0  0
  6 11  4  0  0  0  0
  6 15  1  0  0  0  0
  7 12  4  0  0  0  0
  7 17  1  0  0  0  0
  8 10  1  0  0  0  0
  9 10  4  0  0  0  0
  9 12  1  0  0  0  0
  9 13  1  0  0  0  0
 11 12  4  0  0  0  0
M  END
$$$$
ligand_5
  PyMOL2.5          3D                             0

 20 21  0  0  0  0  0  0  0  0999 V2000
   10.3478    7.7496    5.5771 C   0  0  0  0  0  0  0  0  0  0  0  0
   10.6991    6.8461    5.0787 H   0  0  0  0  0  0  0  0  0  0  0  0
   10.1427    7.5307    6.6251 H   0  0  0  0  0  0  0  0  0  0  0  0
   11.1143    8.5217    5.5111 H   0  0  0  0  0  0  0  0  0  0  0  0
    9.0600    8.2460    4.8940 C   0  0  0  0  0  0  0  0  0  0  0  0
    3.6880   12.5790    3.5530 O   0  0  0  0  0  0  0  0  0  0  0  0
    7.2160   11.7060    4.0430 S   0  0  0  0  0  0  0  0  0  0  0  0
    8.1260    7.3410    4.4090 C   0  0  0  0  0  0  0  0  0  0  0  0
    4.6760   12.4490    1.6410 O   0  5  0  0  0  0  0  0  0  0  0  0
    8.8210    9.5760    4.7570 C   0  0  0  0  0  0  0  0  0  0  0  0
    6.9420    7.8020    3.7580 C   0  0  0  0  0  0  0  0  0  0  0  0
    4.6240   12.1020    2.8350 C   0  0  0  0  0  0  0  0  0  0  0  0
    5.5220    9.8290    3.1030 C   0  0  0  0  0  0  0  0  0  0  0  0
    5.6260   11.1390    3.3520 C   0  0  0  0  0  0  0  0  0  0  0  0
    7.6510    9.9970    4.0730 C   0  0  0  0  0  0  0  0  0  0  0  0
    6.7200    9.1620    3.5990 C   0  0  0  0  0  0  0  0  0  0  0  0
    4.0969    9.0965    2.3511 Cl  0  0  0  0  0  0  0  0  0  0  0  0
    9.5169   10.3085    5.1660 H   0  0  0  0  0  0  0  0  0  0  0  0
    8.2977    6.2710    4.5260 H   0  0  0  0  0  0  0  0  0  0  0  0
    6.2179    7.0336    3.4871 H   0  0  0  0  0  0  0  0  0  0  0  0
  1  2  1  0  0  0  0
  1  3  1  0  0  0  0
  1  4  1  0  0  0  0
  1  5  1  0  0  0  0
  5  8  4  0  0  0  0
  5 10  4  0  0  0  0
  6 12  2  0  0  0  0
  7 14  1  0  0  0  0
  7 15  1  0  0  0  0
  8 11  4  0  0  0  0
  8 19  1  0  0  0  0
  9 12  1  0  0  0  0
 10 15  4  0  0  0  0
 10 18  1  0  0  0  0
 11 16  4  0  0  0  0
 11 20  1  0  0  0  0
 12 14  1  0  0  0  0
 13 14  4  0  0  0  0
 13 16  1  0  0  0  0
 13 17  1  0  0  0  0
 15 16  4  0  0  0  0
M  END
$$$$
ligand_6
  PyMOL2.5          3D                             0

 17 18  0  0  0  0  0  0  0  0999 V2000
    4.6809    9.3408    2.6108 H   0  0  0  0  0  0  0  0  0  0  0  0
    9.0600    8.2460    4.8940 C   0  0  0  0  0  0  0  0  0  0  0  0
    3.6880   12.5790    3.5530 O   0  0  0  0  0  0  0  0  0  0  0  0
    8.1260    7.3410    4.4090 C   0  0  0  0  0  0  0  0  0  0  0  0
    4.6760   12.4490    1.6410 O   0  5  0  0  0  0  0  0  0  0  0  0
    8.8210    9.5760    4.7570 C   0  0  0  0  0  0  0  0  0  0  0  0
    6.9420    7.8020    3.7580 C   0  0  0  0  0  0  0  0  0  0  0  0
    4.6240   12.1020    2.8350 C   0  0  0  0  0  0  0  0  0  0  0  0
    5.5220    9.8290    3.1030 C   0  0  0  0  0  0  0  0  0  0  0  0
    5.6260   11.1390    3.3520 C   0  0  0  0  0  0  0  0  0  0  0  0
    7.6510    9.9970    4.0730 C   0  0  0  0  0  0  0  0  0  0  0  0
    6.7200    9.1620    3.5990 C   0  0  0  0  0  0  0  0  0  0  0  0
    9.5169   10.3085    5.1660 H   0  0  0  0  0  0  0  0  0  0  0  0
    9.9715    7.8946    5.3775 H   0  0  0  0  0  0  0  0  0  0  0  0
    8.2977    6.2710    4.5260 H   0  0  0  0  0  0  0  0  0  0  0  0
    6.2179    7.0336    3.4871 H   0  0  0  0  0  0  0  0  0  0  0  0
    6.9699   11.2778    3.9070 O   0  0  0  0  0  0  0  0  0  0  0  0
  2  4  4  0  0  0  0
  2  6  4  0  0  0  0
  2 14  1  0  0  0  0
  3  8  2  0  0  0  0
  4  7  4  0  0  0  0
  4 15  1  0  0  0  0
  5  8  1  0  0  0  0
  6 11  4  0  0  0  0
  6 13  1  0  0  0  0
  7 12  4  0  0  0  0
  7 16  1  0  0  0  0
  8 10  1  0  0  0  0
  1  9  1  0  0  0  0
  9 10  4  0  0  0  0
  9 12  1  0  0  0  0
 10 17  1  0  0  0  0
 11 12  4  0  0  0  0
 11 17  1  0  0  0  0
M  END
$$$$
ligand_7
  PyMOL2.5          3D                             0

 20 21  0  0  0  0  0  0  0  0999 V2000
    9.0600    8.2460    4.8940 C   0  0  0  0  0  0  0  0  0  0  0  0
    3.6880   12.5790    3.5530 O   0  0  0  0  0  0  0  0  0  0  0  0
    8.1260    7.3410    4.4090 C   0  0  0  0  0  0  0  0  0  0  0  0
    4.6760   12.4490    1.6410 O   0  5  0  0  0  0  0  0  0  0  0  0
    8.8210    9.5760    4.7570 C   0  0  0  0  0  0  0  0  0  0  0  0
    6.9420    7.8020    3.7580 C   0  0  0  0  0  0  0  0  0  0  0  0
    4.6240   12.1020    2.8350 C   0  0  0  0  0  0  0  0  0  0  0  0
    5.5220    9.8290    3.1030 C   0  0  0  0  0  0  0  0  0  0  0  0
    5.6260   11.1390    3.3520 C   0  0  0  0  0  0  0  0  0  0  0  0
    7.6510    9.9970    4.0730 C   0  0  0  0  0  0  0  0  0  0  0  0
    6.7200    9.1620    3.5990 C   0  0  0  0  0  0  0  0  0  0  0  0
    4.3336    9.1393    2.4075 C   0  0  0  0  0  0  0  0  0  0  0  0
    8.4048    5.6034    4.5989 Cl  0  0  0  0  0  0  0  0  0  0  0  0
    9.5169   10.3085    5.1660 H   0  0  0  0  0  0  0  0  0  0  0  0
    9.9715    7.8946    5.3775 H   0  0  0  0  0  0  0  0  0  0  0  0
    4.0081    8.2866    3.0035 H   0  0  0  0  0  0  0  0  0  0  0  0
    6.2179    7.0336    3.4871 H   0  0  0  0  0  0  0  0  0  0  0  0
    4.6394    8.7968    1.4189 H   0  0  0  0  0  0  0  0  0  0  0  0
    3.5110    9.8473    2.3078 H   0  0  0  0  0  0  0  0  0  0  0  0
    6.9699   11.2778    3.9070 O   0  0  0  0  0  0  0  0  0  0  0  0
  1  3  4  0  0  0  0
  1  5  4  0  0  0  0
  1 15  1  0  0  0  0
  2  7  2  0  0  0  0
  3  6  4  0  0  0  0
  3 13  1  0  0  0  0
  4  7  1  0  0  0  0
  5 10  4  0  0  0  0
  5 14  1  0  0  0  0
  6 11  4  0  0  0  0
  6 17  1  0  0  0  0
  7  9  1  0  0  0  0
  8  9  4  0  0  0  0
  8 11  1  0  0  0  0
  8 12  1  0  0  0  0
  9 20  1  0  0  0  0
 10 11  4  0  0  0  0
 10 20  1  0  0  0  0
 12 16  1  0  0  0  0
 12 18  1  0  0  0  0
 12 19  1  0  0  0  0
M  END
$$$$
ligand_8
  PyMOL2.5          3D                             0

 20 21  0  0  0  0  0  0  0  0999 V2000
    9.0600    8.2460    4.8940 C   0  0  0  0  0  0  0  0  0  0  0  0
    3.6880   12.5790    3.5530 O   0  0  0  0  0  0  0  0  0  0  0  0
    8.1260    7.3410    4.4090 C   0  0  0  0  0  0  0  0  0  0  0  0
    4.6760   12.4490    1.6410 O   0  5  0  0  0  0  0  0  0  0  0  0
    8.8210    9.5760    4.7570 C   0  0  0  0  0  0  0  0  0  0  0  0
    6.9420    7.8020    3.7580 C   0  0  0  0  0  0  0  0  0  0  0  0
    4.6240   12.1020    2.8350 C   0  0  0  0  0  0  0  0  0  0  0  0
    5.5220    9.8290    3.1030 C   0  0  0  0  0  0  0  0  0  0  0  0
    5.6260   11.1390    3.3520 C   0  0  0  0  0  0  0  0  0  0  0  0
    7.6510    9.9970    4.0730 C   0  0  0  0  0  0  0  0  0  0  0  0
    6.7200    9.1620    3.5990 C   0  0  0  0  0  0  0  0  0  0  0  0
    4.3336    9.1393    2.4075 C   0  0  0  0  0  0  0  0  0  0  0  0
   10.5402    7.6754    5.6792 Cl  0  0  0  0  0  0  0  0  0  0  0  0
    9.5169   10.3085    5.1660 H   0  0  0  0  0  0  0  0  0  0  0  0
    8.2977    6.2710    4.5260 H   0  0  0  0  0  0  0  0  0  0  0  0
    4.0081    8.2866    3.0035 H   0  0  0  0  0  0  0  0  0  0  0  0
    6.2179    7.0336    3.4871 H   0  0  0  0  0  0  0  0  0  0  0  0
    4.6394    8.7968    1.4189 H   0  0  0  0  0  0  0  0  0  0  0  0
    3.5110    9.8473    2.3078 H   0  0  0  0  0  0  0  0  0  0  0  0
    6.9699   11.2778    3.9070 O   0  0  0  0  0  0  0  0  0  0  0  0
  1  3  4  0  0  0  0
  1  5  4  0  0  0  0
  1 13  1  0  0  0  0
  2  7  2  0  0  0  0
  3  6  4  0  0  0  0
  3 15  1  0  0  0  0
  4  7  1  0  0  0  0
  5 10  4  0  0  0  0
  5 14  1  0  0  0  0
  6 11  4  0  0  0  0
  6 17  1  0  0  0  0
  7  9  1  0  0  0  0
  8  9  4  0  0  0  0
  8 11  1  0  0  0  0
  8 12  1  0  0  0  0
  9 20  1  0  0  0  0
 10 11  4  0  0  0  0
 10 20  1  0  0  0  0
 12 16  1  0  0  0  0
 12 18  1  0  0  0  0
 12 19  1  0  0  0  0
M  END
$$$$
ligand_9
  PyMOL2.5          3D                             0

 23 24  0  0  0  0  0  0  0  0999 V2000
    9.0600    8.2460    4.8940 C   0  0  0  0  0  0  0  0  0  0  0  0
    3.6880   12.5790    3.5530 O   0  0  0  0  0  0  0  0  0  0  0  0
    8.1260    7.3410    4.4090 C   0  0  0  0  0  0  0  0  0  0  0  0
    4.6760   12.4490    1.6410 O   0  5  0  0  0  0  0  0  0  0  0  0
    8.8210    9.5760    4.7570 C   0  0  0  0  0  0  0  0  0  0  0  0
    6.9420    7.8020    3.7580 C   0  0  0  0  0  0  0  0  0  0  0  0
    4.6240   12.1020    2.8350 C   0  0  0  0  0  0  0  0  0  0  0  0
    5.5220    9.8290    3.1030 C   0  0  0  0  0  0  0  0  0  0  0  0
    5.6260   11.1390    3.3520 C   0  0  0  0  0  0  0  0  0  0  0  0
    7.6510    9.9970    4.0730 C   0  0  0  0  0  0  0  0  0  0  0  0
    6.7200    9.1620    3.5990 C   0  0  0  0  0  0  0  0  0  0  0  0
    4.3336    9.1393    2.4075 C   0  0  0  0  0  0  0  0  0  0  0  0
    9.8042   10.6109    5.3348 C   0  0  0  0  0  0  0  0  0  0  0  0
   10.0781   10.3252    6.3504 H   0  0  0  0  0  0  0  0  0  0  0  0
    9.9715    7.8946    5.3775 H   0  0  0  0  0  0  0  0  0  0  0  0
    8.2977    6.2710    4.5260 H   0  0  0  0  0  0  0  0  0  0  0  0
    4.0081    8.2866    3.0035 H   0  0  0  0  0  0  0  0  0  0  0  0
    6.2179    7.0336    3.4871 H   0  0  0  0  0  0  0  0  0  0  0  0
    4.6394    8.7968    1.4189 H   0  0  0  0  0  0  0  0  0  0  0  0
    3.5110    9.8473    2.3078 H   0  0  0  0  0  0  0  0  0  0  0  0
    9.3324   11.5934    5.3479 H   0  0  0  0  0  0  0  0  0  0  0  0
   10.6995   10.6467    4.7142 H   0  0  0  0  0  0  0  0  0  0  0  0
    6.9699   11.2778    3.9070 O   0  0  0  0  0  0  0  0  0  0  0  0
  1  3  4  0  0  0  0
  1  5  4  0  0  0  0
  1 15  1  0  0  0  0
  2  7  2  0  0  0  0
  3  6  4  0  0  0  0
  3 16  1  0  0  0  0
  4  7  1  0  0  0  0
  5 10  4  0  0  0  0
  5 13  1  0  0  0  0
  6 11  4  0  0  0  0
  6 18  1  0  0  0  0
  7  9  1  0  0  0  0
  8  9  4  0  0  0  0
  8 11  1  0  0  0  0
  8 12  1  0  0  0  0
  9 23  1  0  0  0  0
 10 11  4  0  0  0  0
 10 23  1  0  0  0  0
 12 17  1  0  0  0  0
 12 19  1  0  0  0  0
 12 20  1  0  0  0  0
 13 14  1  0  0  0  0
 13 21  1  0  0  0  0
 13 22  1  0  0  0  0
M  END
$$$$
ligand_10
  PyMOL2.5          3D                             0

 26 27  0  0  0  0  0  0  0  0999 V2000
    9.0600    8.2460    4.8940 C   0  0  0  0  0  0  0  0  0  0  0  0
    3.6880   12.5790    3.5530 O   0  0  0  0  0  0  0  0  0  0  0  0
    8.1260    7.3410    4.4090 C   0  0  0  0  0  0  0  0  0  0  0  0
    4.6760   12.4490    1.6410 O   0  5  0  0  0  0  0  0  0  0  0  0
    8.8210    9.5760    4.7570 C   0  0  0  0  0  0  0  0  0  0  0  0
    6.9420    7.8020    3.7580 C   0  0  0  0  0  0  0  0  0  0  0  0
    4.6240   12.1020    2.8350 C   0  0  0  0  0  0  0  0  0  0  0  0
    5.5220    9.8290    3.1030 C   0  0  0  0  0  0  0  0  0  0  0  0
    5.6260   11.1390    3.3520 C   0  0  0  0  0  0  0  0  0  0  0  0
    7.6510    9.9970    4.0730 C   0  0  0  0  0  0  0  0  0  0  0  0
    6.7200    9.1620    3.5990 C   0  0  0  0  0  0  0  0  0  0  0  0
    4.3336    9.1393    2.4075 C   0  0  0  0  0  0  0  0  0  0  0  0
    9.8042   10.6109    5.3348 C   0  0  0  0  0  0  0  0  0  0  0  0
   10.3478    7.7496    5.5771 C   0  0  0  0  0  0  0  0  0  0  0  0
   10.0781   10.3252    6.3504 H   0  0  0  0  0  0  0  0  0  0  0  0
   10.6992    6.8461    5.0787 H   0  0  0  0  0  0  0  0  0  0  0  0
    8.2977    6.2710    4.5260 H   0  0  0  0  0  0  0  0  0  0  0  0
    4.0081    8.2866    3.0035 H   0  0  0  0  0  0  0  0  0  0  0  0
    6.2179    7.0336    3.4871 H   0  0  0  0  0  0  0  0  0  0  0  0
    4.6394    8.7968    1.4189 H   0  0  0  0  0  0  0  0  0  0  0  0
    3.5110    9.8473    2.3078 H   0  0  0  0  0  0  0  0  0  0  0  0
    9.3324   11.5934    5.3479 H   0  0  0  0  0  0  0  0  0  0  0  0
   10.6995   10.6467    4.7142 H   0  0  0  0  0  0  0  0  0  0  0  0
   10.1428    7.5307    6.6251 H   0  0  0  0  0  0  0  0  0  0  0  0
   11.1143    8.5218    5.5111 H   0  0  0  0  0  0  0  0  0  0  0  0
    6.9699   11.2778    3.9070 O   0  0  0  0  0  0  0  0  0  0  0  0
  1  3  4  0  0  0  0
  1  5  4  0  0  0  0
  1 14  1  0  0  0  0
  2  7  2  0  0  0  0
  3  6  4  0  0  0  0
  3 17  1  0  0  0  0
  4  7  1  0  0  0  0
  5 10  4  0  0  0  0
  5 13  1  0  0  0  0
  6 11  4  0  0  0  0
  6 19  1  0  0  0  0
  7  9  1  0  0  0  0
  8  9  4  0  0  0  0
  8 11  1  0  0  0  0
  8 12  1  0  0  0  0
  9 26  1  0  0  0  0
 10 11  4  0  0  0  0
 10 26  1  0  0  0  0
 12 18  1  0  0  0  0
 12 20  1  0  0  0  0
 12 21  1  0  0  0  0
 13 15  1  0  0  0  0
 13 22  1  0  0  0  0
 13 23  1  0  0  0  0
 14 16  1  0  0  0  0
 14 24  1  0  0  0  0
 14 25  1  0  0  0  0
M  END
$$$$
ligand_11
  PyMOL2.5          3D                             0

 17 18  0  0  0  0  0  0  0  0999 V2000
    4.6809    9.3408    2.6108 H   0  0  0  0  0  0  0  0  0  0  0  0
    9.0600    8.2460    4.8940 C   0  0  0  0  0  0  0  0  0  0  0  0
    3.6880   12.5790    3.5530 O   0  0  0  0  0  0  0  0  0  0  0  0
    8.1260    7.3410    4.4090 C   0  0  0  0  0  0  0  0  0  0  0  0
    4.6760   12.4490    1.6410 O   0  5  0  0  0  0  0  0  0  0  0  0
    8.8210    9.5760    4.7570 C   0  0  0  0  0  0  0  0  0  0  0  0
    6.9420    7.8020    3.7580 C   0  0  0  0  0  0  0  0  0  0  0  0
    4.6240   12.1020    2.8350 C   0  0  0  0  0  0  0  0  0  0  0  0
    5.5220    9.8290    3.1030 C   0  0  0  0  0  0  0  0  0  0  0  0
    5.6260   11.1390    3.3520 C   0  0  0  0  0  0  0  0  0  0  0  0
    7.6510    9.9970    4.0730 C   0  0  0  0  0  0  0  0  0  0  0  0
    6.7200    9.1620    3.5990 C   0  0  0  0  0  0  0  0  0  0  0  0
    5.6533    6.4344    3.2758 Br  0  0  0  0  0  0  0  0  0  0  0  0
   10.5402    7.6754    5.6792 Cl  0  0  0  0  0  0  0  0  0  0  0  0
    9.5169   10.3085    5.1660 H   0  0  0  0  0  0  0  0  0  0  0  0
    8.2977    6.2710    4.5260 H   0  0  0  0  0  0  0  0  0  0  0  0
    6.9517   11.2396    3.8964 O   0  0  0  0  0  0  0  0  0  0  0  0
  2  4  4  0  0  0  0
  2  6  4  0  0  0  0
  2 14  1  0  0  0  0
  3  8  2  0  0  0  0
  4  7  4  0  0  0  0
  4 16  1  0  0  0  0
  5  8  1  0  0  0  0
  6 11  4  0  0  0  0
  6 15  1  0  0  0  0
  7 12  4  0  0  0  0
  7 13  1  0  0  0  0
  8 10  1  0  0  0  0
  1  9  1  0  0  0  0
  9 10  4  0  0  0  0
  9 12  1  0  0  0  0
 10 17  1  0  0  0  0
 11 12  4  0  0  0  0
 11 17  1  0  0  0  0
M  END
$$$$
ligand_12
  PyMOL2.5          3D                             0

 18 19  0  0  0  0  0  0  0  0999 V2000
    9.0600    8.2460    4.8940 C   0  0  0  0  0  0  0  0  0  0  0  0
    3.6880   12.5790    3.5530 O   0  0  0  0  0  0  0  0  0  0  0  0
    8.1260    7.3410    4.4090 C   0  0  0  0  0  0  0  0  0  0  0  0
    4.6760   12.4490    1.6410 O   0  5  0  0  0  0  0  0  0  0  0  0
    8.8210    9.5760    4.7570 C   0  0  0  0  0  0  0  0  0  0  0  0
    6.9420    7.8020    3.7580 C   0  0  0  0  0  0  0  0  0  0  0  0
    4.6240   12.1020    2.8350 C   0  0  0  0  0  0  0  0  0  0  0  0
    5.5220    9.8290    3.1030 C   0  0  0  0  0  0  0  0  0  0  0  0
    5.6260   11.1390    3.3520 C   0  0  0  0  0  0  0  0  0  0  0  0
    7.6510    9.9970    4.0730 C   0  0  0  0  0  0  0  0  0  0  0  0
    6.7200    9.1620    3.5990 C   0  0  0  0  0  0  0  0  0  0  0  0
    9.5169   10.3085    5.1660 H   0  0  0  0  0  0  0  0  0  0  0  0
    6.2179    7.0336    3.4871 H   0  0  0  0  0  0  0  0  0  0  0  0
    8.2977    6.2710    4.5260 H   0  0  0  0  0  0  0  0  0  0  0  0
    4.6809    9.3408    2.6108 H   0  0  0  0  0  0  0  0  0  0  0  0
    9.9715    7.8946    5.3775 H   0  0  0  0  0  0  0  0  0  0  0  0
    7.3870   12.1726    4.1519 H   0  0  0  0  0  0  0  0  0  0  0  0
    6.9726   11.2842    3.9086 N   0  0  0  0  0  0  0  0  0  0  0  0
  1  3  4  0  0  0  0
  1  5  4  0  0  0  0
  1 16  1  0  0  0  0
  3  6  4  0  0  0  0
  3 14  1  0  0  0  0
  5 10  4  0  0  0  0
  5 12  1  0  0  0  0
  6 11  4  0  0  0  0
  2  7  2  0  0  0  0
  4  7  1  0  0  0  0
  7  9  1  0  0  0  0
  8  9  4  0  0  0  0
  8 11  1  0  0  0  0
  8 15  1  0  0  0  0
  9 18  1  0  0  0  0
 10 11  4  0  0  0  0
 10 18  1  0  0  0  0
  6 13  1  0  0  0  0
 17 18  1  0  0  0  0
M  END
$$$$
ligand_13
  PyMOL2.5          3D                             0

 21 22  0  0  0  0  0  0  0  0999 V2000
    9.0600    8.2460    4.8940 C   0  0  0  0  0  0  0  0  0  0  0  0
    3.6880   12.5790    3.5530 O   0  0  0  0  0  0  0  0  0  0  0  0
    8.1260    7.3410    4.4090 C   0  0  0  0  0  0  0  0  0  0  0  0
    4.6760   12.4490    1.6410 O   0  5  0  0  0  0  0  0  0  0  0  0
    8.8210    9.5760    4.7570 C   0  0  0  0  0  0  0  0  0  0  0  0
    6.9420    7.8020    3.7580 C   0  0  0  0  0  0  0  0  0  0  0  0
    4.6240   12.1020    2.8350 C   0  0  0  0  0  0  0  0  0  0  0  0
    5.5220    9.8290    3.1030 C   0  0  0  0  0  0  0  0  0  0  0  0
    5.6260   11.1390    3.3520 C   0  0  0  0  0  0  0  0  0  0  0  0
    7.6510    9.9970    4.0730 C   0  0  0  0  0  0  0  0  0  0  0  0
    6.7200    9.1620    3.5990 C   0  0  0  0  0  0  0  0  0  0  0  0
    7.5757   12.5772    4.2627 C   0  0  0  0  0  0  0  0  0  0  0  0
    9.5169   10.3085    5.1660 H   0  0  0  0  0  0  0  0  0  0  0  0
    6.2179    7.0336    3.4871 H   0  0  0  0  0  0  0  0  0  0  0  0
    8.2977    6.2710    4.5260 H   0  0  0  0  0  0  0  0  0  0  0  0
    4.6809    9.3408    2.6108 H   0  0  0  0  0  0  0  0  0  0  0  0
    9.9715    7.8946    5.3775 H   0  0  0  0  0  0  0  0  0  0  0  0
    7.7599   12.6110    5.3365 H   0  0  0  0  0  0  0  0  0  0  0  0
    6.8973   13.3836    3.9843 H   0  0  0  0  0  0  0  0  0  0  0  0
    8.5186   12.6960    3.7290 H   0  0  0  0  0  0  0  0  0  0  0  0
    6.9726   11.2842    3.9086 N   0  0  0  0  0  0  0  0  0  0  0  0
  1  3  4  0  0  0  0
  1  5  4  0  0  0  0
  1 17  1  0  0  0  0
  3  6  4  0  0  0  0
  3 15  1  0  0  0  0
  5 10  4  0  0  0  0
  5 13  1  0  0  0  0
  6 11  4  0  0  0  0
  2  7  2  0  0  0  0
  4  7  1  0  0  0  0
  7  9  1  0  0  0  0
  8  9  4  0  0  0  0
  8 11  1  0  0  0  0
  8 16  1  0  0  0  0
  9 21  1  0  0  0  0
 10 11  4  0  0  0  0
 10 21  1  0  0  0  0
 12 18  1  0  0  0  0
 12 19  1  0  0  0  0
 12 20  1  0  0  0  0
  6 14  1  0  0  0  0
 12 21  1  0  0  0  0
M  END
$$$$
ligand_14
  PyMOL2.5          3D                             0

 21 22  0  0  0  0  0  0  0  0999 V2000
    9.0600    8.2460    4.8940 C   0  0  0  0  0  0  0  0  0  0  0  0
    3.6880   12.5790    3.5530 O   0  0  0  0  0  0  0  0  0  0  0  0
    8.1260    7.3410    4.4090 C   0  0  0  0  0  0  0  0  0  0  0  0
    4.6760   12.4490    1.6410 O   0  5  0  0  0  0  0  0  0  0  0  0
    8.8210    9.5760    4.7570 C   0  0  0  0  0  0  0  0  0  0  0  0
    6.9420    7.8020    3.7580 C   0  0  0  0  0  0  0  0  0  0  0  0
    4.6240   12.1020    2.8350 C   0  0  0  0  0  0  0  0  0  0  0  0
    5.5220    9.8290    3.1030 C   0  0  0  0  0  0  0  0  0  0  0  0
    5.6260   11.1390    3.3520 C   0  0  0  0  0  0  0  0  0  0  0  0
    7.6510    9.9970    4.0730 C   0  0  0  0  0  0  0  0  0  0  0  0
    6.7200    9.1620    3.5990 C   0  0  0  0  0  0  0  0  0  0  0  0
    8.4316    5.4366    4.6172 Br  0  0  0  0  0  0  0  0  0  0  0  0
    7.5757   12.5772    4.2627 C   0  0  0  0  0  0  0  0  0  0  0  0
    9.5169   10.3085    5.1660 H   0  0  0  0  0  0  0  0  0  0  0  0
    6.2179    7.0336    3.4871 H   0  0  0  0  0  0  0  0  0  0  0  0
    4.6809    9.3408    2.6108 H   0  0  0  0  0  0  0  0  0  0  0  0
    9.9715    7.8946    5.3775 H   0  0  0  0  0  0  0  0  0  0  0  0
    7.7599   12.6110    5.3365 H   0  0  0  0  0  0  0  0  0  0  0  0
    6.8973   13.3836    3.9843 H   0  0  0  0  0  0  0  0  0  0  0  0
    8.5186   12.6960    3.7290 H   0  0  0  0  0  0  0  0  0  0  0  0
    6.9726   11.2842    3.9086 N   0  0  0  0  0  0  0  0  0  0  0  0
  1  3  4  0  0  0  0
  1  5  4  0  0  0  0
  1 17  1  0  0  0  0
  3  6  4  0  0  0  0
  3 12  1  0  0  0  0
  5 10  4  0  0  0  0
  5 14  1  0  0  0  0
  6 11  4  0  0  0  0
  2  7  2  0  0  0  0
  4  7  1  0  0  0  0
  7  9  1  0  0  0  0
  8  9  4  0  0  0  0
  8 11  1  0  0  0  0
  8 16  1  0  0  0  0
  9 21  1  0  0  0  0
 10 11  4  0  0  0  0
 10 21  1  0  0  0  0
 13 18  1  0  0  0  0
 13 19  1  0  0  0  0
 13 20  1  0  0  0  0
  6 15  1  0  0  0  0
 13 21  1  0  0  0  0
M  END
$$$$
